Circuit: * C:\Projects\emg-sensor_board\Simulation\Filter_RC_Suggested.asc

WARNING: Node N001 is floating.

.OP point found by inspection.
.step x=4990 y=2.2e-09
.step x=100000 y=2.2e-09
.step x=4990 y=4.7e-09
.step x=100000 y=4.7e-09
.step x=4990 y=1e-08
.step x=100000 y=1e-08

Date: Mon Jul 22 15:06:55 2024
Total elapsed time: 0.192 seconds.

tnom = 27
temp = 27
method = trap
totiter = 0
traniter = 0
tranpoints = 0
accept = 0
rejected = 0
matrix size = 4
fillins = 0
solver = Normal
Avg thread counts: 4.0/0.0/0.0/3.5
Matrix Compiler1:       9 opcodes
Matrix Compiler2:      22 opcodes
