Circuit: * C:\Projects\emg-sensor_board\Simulation\Filter_RC_Suggested.asc

WARNING: Node N001 is floating.

.OP point found by inspection.

Date: Mon Feb 19 14:51:46 2024
Total elapsed time: 0.046 seconds.

tnom = 27
temp = 27
method = trap
totiter = 0
traniter = 0
tranpoints = 0
accept = 0
rejected = 0
matrix size = 4
fillins = 2
solver = Normal
Avg thread counts: 4.0/0.0/0.0/3.5
Matrix Compiler1:      17 opcodes
Matrix Compiler2:      26 opcodes
