Circuit: * C:\Projects\emg-sensor_board\Simulation\Filter_RC_Taken.asc

WARNING: Node N002 is floating.

.OP point found by inspection.

Date: Mon Jul 22 14:36:00 2024
Total elapsed time: 0.058 seconds.

tnom = 27
temp = 27
method = trap
totiter = 0
traniter = 0
tranpoints = 0
accept = 0
rejected = 0
matrix size = 4
fillins = 0
solver = Normal
Avg thread counts: 4.0/0.0/0.0/3.5
Matrix Compiler1:       9 opcodes
Matrix Compiler2:      22 opcodes
